[TITLE]


[JUNCTIONS]
;ID              	Elev        	Demand      	Pattern         
 100019          	818.400024  	0.743537    	2020_MXD_DIURNAL_UPDATE	;
 100047          	819.500000  	0           	                	;
 100056          	819.799988  	0           	                	;
 100100          	904.900024  	0.763128    	2020_MXD_DIURNAL_UPDATE	;
 100197          	725.299988  	2.099279    	2020_MXD_DIURNAL_UPDATE	;
 100306          	725.799988  	1.083436    	2020_MXD_DIURNAL_UPDATE	;
 100316          	727.900024  	0.153763    	2020_MXD_DIURNAL_UPDATE	;
 100326          	725.900024  	0.240630    	2020_MXD_DIURNAL_UPDATE	;
 100497          	919.000000  	2.602131    	2020_MXD_DIURNAL_UPDATE	;
 100541          	716.900024  	0.251891    	2020_MXD_DIURNAL_UPDATE	;
 100550          	868.599976  	2.395738    	2020_MXD_DIURNAL_UPDATE	;
 100557          	893.599976  	0           	                	;
 100560          	893.400024  	1.376733    	2020_MXD_DIURNAL_UPDATE	;
 100565          	849.599976  	0.512747    	2020_MXD_DIURNAL_UPDATE	;
 100567          	716.299988  	0.263061    	2020_MXD_DIURNAL_UPDATE	;
 100575          	714.099976  	0.606043    	2020_MXD_DIURNAL_UPDATE	;
 100597          	788.000000  	0           	                	;
 100598          	785.400024  	0           	                	;
 100602          	850.200012  	0.949011    	2020_MXD_DIURNAL_UPDATE	;
 100608          	846.599976  	0.682268    	2020_MXD_DIURNAL_UPDATE	;
 100609          	845.799988  	0.665525    	2020_MXD_DIURNAL_UPDATE	;
 100621          	892.799988  	1.607306    	2020_MXD_DIURNAL_UPDATE	;
 100722          	826.000000  	1.522470    	2020_MXD_DIURNAL_UPDATE	;
 100762          	707.799988  	0.176370    	2020_MXD_DIURNAL_UPDATE	;
 100790          	705.400024  	0.338204    	2020_MXD_DIURNAL_UPDATE	;
 100816          	705.700012  	2.200889    	2020_MXD_DIURNAL_UPDATE	;
 100880          	810.400024  	2.329250    	2020_MXD_DIURNAL_UPDATE	;
 100897          	810.900024  	1.786338    	2020_MXD_DIURNAL_UPDATE	;
 100973          	823.500000  	0.603120    	2020_MXD_DIURNAL_UPDATE	;
 100991          	860.900024  	1.602021    	2020_MXD_DIURNAL_UPDATE	;
 101011          	750.000000  	0           	                	;
 101030          	746.799988  	0           	                	;
 101052          	909.700012  	1.254319    	2020_MXD_DIURNAL_UPDATE	;
 101054          	743.599976  	0           	                	;
 101088          	730.500000  	0.775293    	2020_MXD_DIURNAL_UPDATE	;
 101100          	729.599976  	2.366248    	2020_MXD_DIURNAL_UPDATE	;
 101105          	738.000000  	0           	                	;
 101150          	909.500000  	0           	                	;
 101163          	908.700012  	0           	                	;
 101167          	740.000000  	0.893874    	2020_MXD_DIURNAL_UPDATE	;
 101171          	734.900024  	0           	                	;
 101175          	893.099976  	0.204909    	2020_MXD_DIURNAL_UPDATE	;
 101179          	738.200012  	0           	                	;
 101182          	891.500000  	0           	                	;
 101190          	734.299988  	0           	                	;
 101195          	733.400024  	0.856709    	2020_MXD_DIURNAL_UPDATE	;
 101200          	723.299988  	1.721870    	2020_MXD_DIURNAL_UPDATE	;
 101202          	908.099976  	1.729443    	2020_MXD_DIURNAL_UPDATE	;
 101204          	733.500000  	0           	                	;
 101205          	891.599976  	0           	                	;
 101208          	889.599976  	0           	                	;
 101217          	885.099976  	1.499429    	2020_MXD_DIURNAL_UPDATE	;
 101236          	825.799988  	0           	                	;
 101240          	891.599976  	0           	                	;
 101242          	718.700012  	0           	                	;
 101249          	891.599976  	0           	                	;
 101260          	826.200012  	0           	                	;
 101262          	717.500000  	0           	                	;
 101266          	822.599976  	0           	                	;
 101270          	891.500000  	0           	                	;
 101307          	891.299988  	0           	                	;
 101308          	889.900024  	0           	                	;
 101312          	885.000000  	0           	                	;
 101313          	876.299988  	0.261225    	2020_MXD_DIURNAL_UPDATE	;
 101315          	879.099976  	0.122527    	2020_MXD_DIURNAL_UPDATE	;
 101320          	891.900024  	0           	                	;
 101333          	878.099976  	0           	                	;
 101355          	880.099976  	0           	                	;
 101372          	892.200012  	0           	                	;
 101378          	888.700012  	0.183409    	2020_MXD_DIURNAL_UPDATE	;
 101443          	852.599976  	0           	                	;
 101470          	852.299988  	0.057422    	2020_MXD_DIURNAL_UPDATE	;
 101502          	894.000000  	2.630327    	2020_MXD_DIURNAL_UPDATE	;
 101541          	847.299988  	0           	                	;
 101553          	846.099976  	0           	                	;
 101566          	846.799988  	1.097719    	2020_MXD_DIURNAL_UPDATE	;
 101593          	675.799988  	0.878799    	2020_MXD_DIURNAL_UPDATE	;
 101608          	672.000000  	0           	                	;
 101609          	913.799988  	0           	                	;
 101621          	673.500000  	0           	                	;
 101629          	912.200012  	0.939132    	2020_MXD_DIURNAL_UPDATE	;
 101650          	912.799988  	0.649264    	2020_MXD_DIURNAL_UPDATE	;
 101658          	866.500000  	2.094178    	2020_MXD_DIURNAL_UPDATE	;
 101660          	788.000000  	1.075818    	2020_MXD_DIURNAL_UPDATE	;
 101684          	786.700012  	3.161596    	2020_MXD_DIURNAL_UPDATE	;
 101695          	863.900024  	1.393718    	2020_MXD_DIURNAL_UPDATE	;
 101712          	866.700012  	1.390411    	2020_MXD_DIURNAL_UPDATE	;
 101840          	918.700012  	2.446444    	2020_MXD_DIURNAL_UPDATE	;
 101887          	914.700012  	0.425544    	2020_MXD_DIURNAL_UPDATE	;
 101919          	849.299988  	0.920852    	2020_MXD_DIURNAL_UPDATE	;
 101923          	913.500000  	2.599846    	2020_MXD_DIURNAL_UPDATE	;
 101989          	908.400024  	3.302059    	2020_MXD_DIURNAL_UPDATE	;
 102098          	845.799988  	4.243076    	2020_MXD_DIURNAL_UPDATE	;
 102112          	702.700012  	1.607928    	2020_MXD_DIURNAL_UPDATE	;
 102159          	743.299988  	0.461533    	2020_MXD_DIURNAL_UPDATE	;
 102182          	742.900024  	0.645196    	2020_MXD_DIURNAL_UPDATE	;
 102186          	745.000000  	1.583172    	2020_MXD_DIURNAL_UPDATE	;
 102538          	775.500000  	2.221954    	2020_MXD_DIURNAL_UPDATE	;
 102541          	785.000000  	3.611792    	2020_MXD_DIURNAL_UPDATE	;
 102628          	772.599976  	0.578957    	2020_MXD_DIURNAL_UPDATE	;
 102658          	770.400024  	1.362062    	2020_MXD_DIURNAL_UPDATE	;
 102660          	828.599976  	0.734399    	2020_MXD_DIURNAL_UPDATE	;
 102710          	539.599976  	0           	                	;
 102726          	854.700012  	0.974696    	2020_MXD_DIURNAL_UPDATE	;
 102759          	836.599976  	0           	                	;
 102773          	855.299988  	0.611111    	2020_MXD_DIURNAL_UPDATE	;
 102790          	839.099976  	2.451104    	2020_MXD_DIURNAL_UPDATE	;
 102801          	840.700012  	0           	                	;
 102803          	804.700012  	0.831963    	2020_MXD_DIURNAL_UPDATE	;
 102805          	859.000000  	1.106925    	2020_MXD_DIURNAL_UPDATE	;
 102837          	815.799988  	3.280426    	2020_MXD_DIURNAL_UPDATE	;
 102877          	816.400024  	0.801847    	2020_MXD_DIURNAL_UPDATE	;
 102878          	816.599976  	0.825029    	2020_MXD_DIURNAL_UPDATE	;
 102922          	726.500000  	1.050200    	2020_MXD_DIURNAL_UPDATE	;
 102941          	916.799988  	0.242580    	2020_MXD_DIURNAL_UPDATE	;
 102970          	726.599976  	0.238415    	2020_MXD_DIURNAL_UPDATE	;
 103015          	726.299988  	0.634296    	2020_MXD_DIURNAL_UPDATE	;
 103024          	728.299988  	0           	                	;
 103073          	868.099976  	0.705860    	2020_MXD_DIURNAL_UPDATE	;
 103086          	731.900024  	0.262140    	2020_MXD_DIURNAL_UPDATE	;
 103103          	734.599976  	0.421880    	2020_MXD_DIURNAL_UPDATE	;
 103119          	775.299988  	0.666857    	2020_MXD_DIURNAL_UPDATE	;
 103136          	761.299988  	0.134174    	2020_MXD_DIURNAL_UPDATE	;
 103146          	879.599976  	2.461533    	2020_MXD_DIURNAL_UPDATE	;
 103165          	761.299988  	0           	                	;
 103190          	763.400024  	0.309325    	2020_MXD_DIURNAL_UPDATE	;
 103214          	803.500000  	1.743404    	2020_MXD_DIURNAL_UPDATE	;
 103234          	772.900024  	0           	                	;
 103256          	777.599976  	1.192732    	2020_MXD_DIURNAL_UPDATE	;
 103295          	771.299988  	0.635654    	2020_MXD_DIURNAL_UPDATE	;
 103296          	800.299988  	2.220129    	2020_MXD_DIURNAL_UPDATE	;
 103334          	907.599976  	0           	                	;
 103335          	812.099976  	0           	                	;
 103370          	812.599976  	0.611589    	2020_MXD_DIURNAL_UPDATE	;
 103388          	821.000000  	0.592127    	2020_MXD_DIURNAL_UPDATE	;
 103396          	812.099976  	0.688520    	2020_MXD_DIURNAL_UPDATE	;
 103427          	820.000000  	0.217515    	2020_MXD_DIURNAL_UPDATE	;
 103437          	820.200012  	0.285430    	2020_MXD_DIURNAL_UPDATE	;
 103440          	825.099976  	0           	                	;
 103452          	827.000000  	0.338164    	2020_MXD_DIURNAL_UPDATE	;
 103498          	810.500000  	0.614484    	2020_MXD_DIURNAL_UPDATE	;
 103550          	773.500000  	0.286944    	2020_MXD_DIURNAL_UPDATE	;
 103579          	808.900024  	1.927032    	2020_MXD_DIURNAL_UPDATE	;
 103586          	771.700012  	0.250913    	2020_MXD_DIURNAL_UPDATE	;
 103599          	773.599976  	1.221014    	2020_MXD_DIURNAL_UPDATE	;
 103602          	808.900024  	0           	                	;
 103666          	729.500000  	2.756884    	2020_MXD_DIURNAL_UPDATE	;
 103760          	756.099976  	2.095392    	2020_MXD_DIURNAL_UPDATE	;
 103797          	948.000000  	0.114726    	2020_MXD_DIURNAL_UPDATE	;
 104033          	810.400024  	1.541071    	2020_MXD_DIURNAL_UPDATE	;
 104038          	770.099976  	1.263912    	2020_MXD_DIURNAL_UPDATE	;
 104059          	769.200012  	0           	                	;
 104086          	768.500000  	0           	                	;
 104118          	809.500000  	0.943501    	2020_MXD_DIURNAL_UPDATE	;
 104133          	809.500000  	0.943501    	2020_MXD_DIURNAL_UPDATE	;
 104145          	893.299988  	0.911149    	2020_MXD_DIURNAL_UPDATE	;
 104161          	764.900024  	0           	                	;
 104175          	809.599976  	0.779871    	2020_MXD_DIURNAL_UPDATE	;
 104201          	898.700012  	0           	                	;
 104210          	899.500000  	0.005010    	2020_MXD_DIURNAL_UPDATE	;
 104243          	891.400024  	0.867960    	2020_MXD_DIURNAL_UPDATE	;
 104448          	570.500000  	0           	                	;
 104458          	569.500000  	0           	                	;
 104487          	567.099976  	0           	                	;
 104555          	722.000000  	0           	                	;
 104561          	724.799988  	0.790852    	2020_MXD_DIURNAL_UPDATE	;
 104585          	721.500000  	0.916663    	2020_MXD_DIURNAL_UPDATE	;
 104611          	742.200012  	2.333143    	2020_MXD_DIURNAL_UPDATE	;
 104692          	693.299988  	0           	                	;
 104709          	693.700012  	0.795382    	2020_MXD_DIURNAL_UPDATE	;
 104727          	691.900024  	0           	                	;
 104764          	684.599976  	0.558908    	2020_MXD_DIURNAL_UPDATE	;
 104975          	894.900024  	0           	                	;
 105022          	891.400024  	0.100457    	2020_MXD_DIURNAL_UPDATE	;
 105067          	899.799988  	0           	                	;
 105073          	899.000000  	0           	                	;
 105113          	901.299988  	0.227359    	2020_MXD_DIURNAL_UPDATE	;
 105137          	901.900024  	0.329370    	2020_MXD_DIURNAL_UPDATE	;
 105204          	508.600006  	0           	                	;
 105536          	771.400024  	0.781330    	2020_MXD_DIURNAL_UPDATE	;
 105545          	799.000000  	0.961046    	2020_MXD_DIURNAL_UPDATE	;
 105706          	827.400024  	0           	                	;
 105717          	839.799988  	0.399543    	2020_MXD_DIURNAL_UPDATE	;
 105738          	835.799988  	0.521499    	2020_MXD_DIURNAL_UPDATE	;
 105872          	818.000000  	0           	                	;
 105885          	852.099976  	0.013208    	2020_MXD_DIURNAL_UPDATE	;
 105953          	697.700012  	3.292070    	2020_MXD_DIURNAL_UPDATE	;
 105966          	778.299988  	4.413691    	2020_MXD_DIURNAL_UPDATE	;
 105977          	810.099976  	0.062728    	2020_MXD_DIURNAL_UPDATE	;
 105995          	811.299988  	0           	                	;
 106035          	812.799988  	0           	                	;
 106071          	809.400024  	0.343607    	2020_MXD_DIURNAL_UPDATE	;
 106082          	814.599976  	0.541336    	2020_MXD_DIURNAL_UPDATE	;
 106209          	815.299988  	1.502093    	2020_MXD_DIURNAL_UPDATE	;
 106210          	813.299988  	0.175609    	2020_MXD_DIURNAL_UPDATE	;
 106215          	761.400024  	0.392061    	2020_MXD_DIURNAL_UPDATE	;
 106272          	814.400024  	0.261035    	2020_MXD_DIURNAL_UPDATE	;
 106291          	763.900024  	1.340010    	2020_MXD_DIURNAL_UPDATE	;
 106315          	759.400024  	0.245877    	2020_MXD_DIURNAL_UPDATE	;
 106323          	719.099976  	0.902890    	2020_MXD_DIURNAL_UPDATE	;
 106355          	817.700012  	0           	                	;
 106415          	719.799988  	0           	                	;
 106428          	715.599976  	0.138250    	2020_MXD_DIURNAL_UPDATE	;
 106475          	722.299988  	0           	                	;
 106520          	725.200012  	1.350466    	2020_MXD_DIURNAL_UPDATE	;
 106530          	817.799988  	0.788432    	2020_MXD_DIURNAL_UPDATE	;
 107111          	807.400024  	0.996151    	2020_MXD_DIURNAL_UPDATE	;
 107205          	807.099976  	0.982085    	2020_MXD_DIURNAL_UPDATE	;
 107212          	804.599976  	0.816787    	2020_MXD_DIURNAL_UPDATE	;
 107270          	776.700012  	1.117896    	2020_MXD_DIURNAL_UPDATE	;
 107471          	766.400024  	2.374239    	2020_MXD_DIURNAL_UPDATE	;
 107519          	750.200012  	0.381025    	2020_MXD_DIURNAL_UPDATE	;
 107579          	746.900024  	1.062595    	2020_MXD_DIURNAL_UPDATE	;
 107854          	746.900024  	0.227549    	2020_MXD_DIURNAL_UPDATE	;
 107880          	745.200012  	0.634513    	2020_MXD_DIURNAL_UPDATE	;
 107908          	744.400024  	0.464992    	2020_MXD_DIURNAL_UPDATE	;
 108282          	716.599976  	1.615459    	2020_MXD_DIURNAL_UPDATE	;
 108420          	710.599976  	0.488339    	2020_MXD_DIURNAL_UPDATE	;
 108656          	732.000000  	3.880424    	2020_MXD_DIURNAL_UPDATE	;
 218216          	1029.000000 	0.313961    	2020_MXD_DIURNAL_UPDATE	;
 218217          	1029.400024 	0           	                	;
 218219          	1029.099976 	0           	                	;
 218225          	1018.900024 	0           	                	;
 218226          	1018.700012 	0           	                	;
 218229          	1015.099976 	0           	                	;
 218230          	1014.900024 	0           	                	;
 218234          	1012.500000 	0.185970    	2020_MXD_DIURNAL_UPDATE	;
 218235          	1012.400024 	0           	                	;
 218236          	1012.299988 	0           	                	;
 218241          	1010.299988 	0           	                	;
 218242          	1010.900024 	0           	                	;
 218244          	1010.700012 	0           	                	;
 218247          	1006.799988 	1.012673    	2020_MXD_DIURNAL_UPDATE	;
 218248          	1015.099976 	0.176463    	2020_MXD_DIURNAL_UPDATE	;
 218250          	1014.799988 	0           	                	;
 218251          	1005.000000 	0           	                	;
 218252          	1015.099976 	0.589728    	2020_MXD_DIURNAL_UPDATE	;
 218254          	997.099976  	0           	                	;
 218257          	1015.099976 	0.205978    	2020_MXD_DIURNAL_UPDATE	;
 218260          	1004.599976 	0.600091    	2020_MXD_DIURNAL_UPDATE	;
 218261          	1014.799988 	0.288588    	2020_MXD_DIURNAL_UPDATE	;
 218263          	1014.400024 	0.830856    	2020_MXD_DIURNAL_UPDATE	;
 218264          	1012.400024 	0.679300    	2020_MXD_DIURNAL_UPDATE	;
 218265          	1014.500000 	1.198366    	2020_MXD_DIURNAL_UPDATE	;
 218268          	1012.500000 	0.305088    	2020_MXD_DIURNAL_UPDATE	;
 218269          	1005.000000 	0.225672    	2020_MXD_DIURNAL_UPDATE	;
 218271          	1004.599976 	0.293040    	2020_MXD_DIURNAL_UPDATE	;
 218277          	1013.900024 	1.682464    	2020_MXD_DIURNAL_UPDATE	;
 218278          	1013.599976 	0           	                	;
 218285          	1011.200012 	0           	                	;
 218287          	1010.099976 	0           	                	;
 218319          	1011.799988 	0.156244    	2020_MXD_DIURNAL_UPDATE	;
 218320          	1011.799988 	0           	                	;
 218321          	1011.799988 	0           	                	;
 218322          	1011.700012 	0           	                	;
 218384          	1021.799988 	0.355006    	2020_MXD_DIURNAL_UPDATE	;
 218388          	1022.599976 	0           	                	;
 218657          	988.900024  	0           	                	;
 218714          	932.799988  	38.320000   	2020_MXD_DIURNAL_UPDATE	;620 Canyon Creek Appts
 218718          	989.299988  	0           	                	;
 218725          	936.299988  	0.244136    	2020_MXD_DIURNAL_UPDATE	;
 218726          	936.700012  	0           	                	;
 218728          	991.299988  	0           	                	;
 218730          	937.299988  	0.301488    	2020_MXD_DIURNAL_UPDATE	;
 218733          	937.900024  	0.304762    	2020_MXD_DIURNAL_UPDATE	;
 218734          	938.799988  	0           	                	;
 218736          	940.900024  	0.711334    	2020_MXD_DIURNAL_UPDATE	;
 218739          	950.799988  	0.866585    	2020_MXD_DIURNAL_UPDATE	;
 218743          	957.000000  	1.343642    	2020_MXD_DIURNAL_UPDATE	;
 218745          	996.900024  	0           	                	;
 218751          	997.799988  	0           	                	;
 218752          	998.099976  	0           	                	;
 218753          	997.900024  	0           	                	;
 218754          	998.900024  	0           	                	;
 218755          	995.900024  	0           	                	;
 218756          	1001.700012 	0           	                	;
 218760          	1007.099976 	0           	                	;
 218766          	1009.799988 	0.119561    	2020_MXD_DIURNAL_UPDATE	;
 218776          	996.700012  	0.634686    	2020_MXD_DIURNAL_UPDATE	;
 218788          	1005.700012 	0.440537    	2020_MXD_DIURNAL_UPDATE	;
 218789          	1005.200012 	0.189018    	2020_MXD_DIURNAL_UPDATE	;
 218790          	1006.299988 	0.479637    	2020_MXD_DIURNAL_UPDATE	;
 218792          	1001.500000 	0.205346    	2020_MXD_DIURNAL_UPDATE	;
 218795          	1000.900024 	0           	                	;
 218796          	1000.799988 	0.468029    	2020_MXD_DIURNAL_UPDATE	;
 218798          	1002.000000 	0           	                	;
 218802          	999.599976  	0.469471    	2020_MXD_DIURNAL_UPDATE	;
 218804          	1001.500000 	0           	                	;
 218821          	1000.700012 	0.121573    	2020_MXD_DIURNAL_UPDATE	;
 218823          	1000.900024 	0.461138    	2020_MXD_DIURNAL_UPDATE	;
 218825          	997.200012  	0.422416    	2020_MXD_DIURNAL_UPDATE	;
 218826          	995.700012  	0           	                	;
 218833          	1000.900024 	0.157597    	2020_MXD_DIURNAL_UPDATE	;
 218834          	999.900024  	0.186457    	2020_MXD_DIURNAL_UPDATE	;
 218835          	1013.799988 	0.317656    	2020_MXD_DIURNAL_UPDATE	;
 218836          	995.500000  	0.629996    	2020_MXD_DIURNAL_UPDATE	;
 218837          	999.299988  	0           	                	;
 218841          	998.299988  	0           	                	;
 218844          	999.099976  	0           	                	;
 218847          	1001.400024 	16.500000   	2020_MXD_DIURNAL_UPDATE	;Trails at 620 Shopping Center
 218851          	1008.799988 	0           	                	;
 218855          	1008.599976 	0           	                	;
 218859          	1008.900024 	0           	                	;
 218863          	1011.000000 	0           	                	;
 218872          	1015.200012 	0           	                	;
 218875          	1016.900024 	6.174658    	2020_MXD_DIURNAL_UPDATE	;
 218876          	1007.200012 	0           	                	;
 218880          	1008.099976 	0           	                	;
 218883          	1013.400024 	0           	                	;
 218888          	1019.900024 	0           	                	;
 218894          	1023.099976 	0           	                	;
 218899          	1022.000000 	0           	                	;
 218900          	1019.799988 	0           	                	;
 218901          	1019.799988 	0           	                	;
 218902          	1020.000000 	0           	                	;
 218905          	1019.400024 	0           	                	;
 218908          	1020.500000 	0           	                	;
 218909          	1019.299988 	0           	                	;
 218910          	1020.099976 	0           	                	;
 218911          	1019.299988 	0           	                	;
 218913          	1017.700012 	0.000559    	2020_MXD_DIURNAL_UPDATE	;
 218917          	1015.700012 	0           	                	;
 218919          	1013.400024 	0           	                	;
 218927          	1017.500000 	0           	                	;
 218933          	1017.000000 	0           	                	;
 218939          	1013.200012 	0           	                	;
 218943          	1017.400024 	4.670472    	2020_MXD_DIURNAL_UPDATE	;
 218949          	1019.200012 	0           	                	;
 218950          	1018.299988 	0.053586    	2020_MXD_DIURNAL_UPDATE	;
 218953          	1025.400024 	0           	                	;
 218958          	1002.400024 	0           	                	;
 218960          	1003.200012 	0           	                	;
 218963          	1028.900024 	0           	                	;
 218964          	1028.900024 	2.103691    	2020_MXD_DIURNAL_UPDATE	;
 218970          	1003.400024 	0           	                	;
 218973          	1027.900024 	0.020928    	2020_MXD_DIURNAL_UPDATE	;
 218977          	1004.099976 	0.039996    	2020_MXD_DIURNAL_UPDATE	;
 218982          	1024.099976 	0           	                	;
 218983          	1024.099976 	0           	                	;
 218984          	1024.000000 	0           	                	;
 218991          	1016.700012 	0           	                	;
 218992          	1016.900024 	0           	                	;
 218994          	1015.799988 	0           	                	;
 218995          	1015.299988 	0           	                	;
 218997          	1031.699951 	0           	                	;
 218998          	1031.699951 	0           	                	;
 218999          	1031.800049 	0           	                	;
 219005          	1032.300049 	0           	                	;
 219008          	1006.900024 	0           	                	;
 219009          	1029.800049 	22.950000   	2020_MXD_DIURNAL_UPDATE	;Tintara at Canyon Creek Appts
 219010          	1029.300049 	0           	                	;
 219025          	979.500000  	2.608579    	2020_MXD_DIURNAL_UPDATE	;
 219028          	1020.200012 	0           	                	;
 219035          	1017.400024 	0           	                	;
 219040          	954.599976  	0.131313    	2020_MXD_DIURNAL_UPDATE	;
 219055          	1013.099976 	0           	                	;
 219057          	1012.099976 	0           	                	;
 219058          	1011.500000 	0           	                	;
 219062          	1008.700012 	0           	                	;
 219076          	1019.799988 	0           	                	;
 219080          	1023.599976 	0           	                	;
 219081          	1025.500000 	0           	                	;
 219082          	1005.700012 	0           	                	;
 219083          	1004.500000 	0           	                	;
 219084          	1008.599976 	0           	                	;
 219091          	1053.000000 	0           	                	;
 219092          	1060.000000 	0           	                	;
 219093          	1082.599976 	0           	                	;
 219094          	1104.500000 	0           	                	;
 219095          	1103.800049 	0           	                	;
 219096          	1104.599976 	0           	                	;
 219107          	1105.699951 	0           	                	;
 219113          	1097.500000 	0           	                	;
 219123          	1060.800049 	0.679987    	2020_MXD_DIURNAL_UPDATE	;
 219126          	1062.400024 	6.322534    	2020_MXD_DIURNAL_UPDATE	;
 219130          	1054.699951 	2.125053    	2020_MXD_DIURNAL_UPDATE	;
 219134          	1053.500000 	2.592175    	2020_MXD_DIURNAL_UPDATE	;
 219138          	1054.099976 	3.589817    	2020_MXD_DIURNAL_UPDATE	;
 219140          	1055.199951 	0.596077    	2020_MXD_DIURNAL_UPDATE	;
 219150          	1056.099976 	0           	                	;
 219151          	1057.000000 	0.583236    	2020_MXD_DIURNAL_UPDATE	;
 219152          	1061.800049 	1.441653    	2020_MXD_DIURNAL_UPDATE	;
 219159          	1062.900024 	0.150596    	2020_MXD_DIURNAL_UPDATE	;
 219160          	1061.800049 	1.066800    	2020_MXD_DIURNAL_UPDATE	;
 219162          	1049.599976 	3.175036    	2020_MXD_DIURNAL_UPDATE	;
 219165          	1031.599976 	0.779144    	2020_MXD_DIURNAL_UPDATE	;
 219170          	938.900024  	0.376752    	2020_MXD_DIURNAL_UPDATE	;
 219171          	868.400024  	0.594781    	2020_MXD_DIURNAL_UPDATE	;
 219172          	729.500000  	0.626650    	2020_MXD_DIURNAL_UPDATE	;
 219173          	891.599976  	0           	                	;
 219174          	891.500000  	0           	                	;
 219176          	891.500000  	0           	                	;
 219189          	592.400024  	0           	                	;
 219193          	530.000000  	0           	                	;
 219194          	525.900024  	0           	                	;
 219196          	522.799988  	0           	                	;
 219198          	510.600006  	0           	                	;
 219203          	534.400024  	0           	                	;
 219204          	530.799988  	0           	                	;
 219205          	529.200012  	0           	                	;
 219206          	527.799988  	0           	                	;
 219210          	523.700012  	0           	                	;
 219211          	523.000000  	0           	                	;
 219212          	521.000000  	1.376558    	2020_MXD_DIURNAL_UPDATE	;
 219222          	523.099976  	0.420845    	2020_MXD_DIURNAL_UPDATE	;
 219225          	525.000000  	0.249677    	2020_MXD_DIURNAL_UPDATE	;
 219232          	519.500000  	0.825864    	2020_MXD_DIURNAL_UPDATE	;
 219238          	505.000000  	2.270601    	2020_MXD_DIURNAL_UPDATE	;
 219241          	509.399994  	2.368733    	2020_MXD_DIURNAL_UPDATE	;
 219246          	515.400024  	0.900550    	2020_MXD_DIURNAL_UPDATE	;
 219252          	514.400024  	1.826301    	2020_MXD_DIURNAL_UPDATE	;
 219254          	534.299988  	0           	                	;
 219257          	519.299988  	0.203174    	2020_MXD_DIURNAL_UPDATE	;
 219259          	517.000000  	0           	                	;
 219261          	518.599976  	0.476722    	2020_MXD_DIURNAL_UPDATE	;
 219264          	514.099976  	0.305921    	2020_MXD_DIURNAL_UPDATE	;
 230238          	999.500000  	0           	                	;
 230239          	999.500000  	0           	                	;
 230240          	999.500000  	0           	                	;
 230250          	1001.900024 	0           	                	;
 230251          	1001.900024 	29.960000   	2020_MXD_DIURNAL_UPDATE	;Sonterra Luxury Appts
 230253          	1005.299988 	0           	                	;
 230264          	1005.799988 	0           	                	;
 230265          	1005.400024 	0           	                	;
 230266          	1005.099976 	0           	                	;
 230280          	1005.900024 	0           	                	;
 230281          	1005.599976 	0           	                	;
 230283          	1005.200012 	0           	                	;
 230304          	1002.299988 	0           	                	;
 230306          	1001.799988 	0           	                	;
 230307          	1001.599976 	0           	                	;
 230479          	1005.299988 	0           	                	;
 230505          	1006.400024 	0           	                	;
 230508          	1007.000000 	0           	                	;
 230509          	1006.700012 	0           	                	;
 230510          	1006.500000 	0           	                	;
 230511          	1006.299988 	0           	                	;
 230512          	1005.799988 	0           	                	;
 230518          	1007.500000 	35.110000   	2020_MXD_DIURNAL_UPDATE	;Abelia Flats Appts
 230522          	1007.500000 	0           	                	;